data_image0
_chemical_formula_structural       Cr2I6
_chemical_formula_sum              "Cr2 I6"
_cell_length_a       7.007944101379477
_cell_length_b       7.007944101379479
_cell_length_c       18.063536576448442
_cell_angle_alpha    90.0
_cell_angle_beta     90.0
_cell_angle_gamma    120.00000000000001

_space_group_name_H-M_alt    "P 1"
_space_group_IT_number       1

loop_
  _space_group_symop_operation_xyz
  'x, y, z'

loop_
  _atom_site_type_symbol
  _atom_site_label
  _atom_site_symmetry_multiplicity
  _atom_site_fract_x
  _atom_site_fract_y
  _atom_site_fract_z
  _atom_site_occupancy
  Cr  Cr1       1.0  0.6666666666666666  0.33333333333333326  0.5000000247180771  1.0000
  Cr  Cr2       1.0  0.3333333333333339  0.6666666666666665  0.5000000501683313  1.0000
  I   I1        1.0  0.6400805139849901  0.9999977877949024  0.41325684226678433  1.0000
  I   I2        1.0  0.3599172738099133  0.35991948601501  0.41325684226678433  1.0000
  I   I3        1.0  2.2122051007221244e-06  0.6400827261900881  0.41325684226678433  1.0000
  I   I4        1.0  0.35991743957564704  0.9999980859273939  0.5867431487742785  1.0000
  I   I5        1.0  0.6400806463517428  0.6400825604243486  0.5867431487742785  1.0000
  I   I6        1.0  1.914072608052133e-06  0.3599193536482581  0.5867431487742785  1.0000
