data_image0
_chemical_formula_structural       Cr2I6Cr2I6Cr2I6Cr2I6Cr2I6Cr2I6Cr2I6Cr2I6Cr2I6
_chemical_formula_sum              "Cr18 I54"
_cell_length_a       20.601
_cell_length_b       20.601
_cell_length_c       20.0
_cell_angle_alpha    90.0
_cell_angle_beta     90.0
_cell_angle_gamma    119.99999999999999

_space_group_name_H-M_alt    "P 1"
_space_group_IT_number       1

loop_
  _space_group_symop_operation_xyz
  'x, y, z'

loop_
  _atom_site_type_symbol
  _atom_site_label
  _atom_site_symmetry_multiplicity
  _atom_site_fract_x
  _atom_site_fract_y
  _atom_site_fract_z
  _atom_site_occupancy
  Cr  Cr1       1.0  0.11111111111111112  0.22222222222222224  0.5  1.0000
  Cr  Cr2       1.0  0.2222222222222222  0.11111111111111108  0.5  1.0000
  I   I1        1.0  0.21650166666666665  0.0  0.5782046383333332  1.0000
  I   I2        1.0  0.0  0.21650166666666662  0.5782046383333332  1.0000
  I   I3        1.0  0.1168316666666667  0.11683166666666671  0.5782046383333332  1.0000
  I   I4        1.0  0.1168316666666667  0.0  0.42179536166666676  1.0000
  I   I5        1.0  6.033347049797684e-18  0.11683166666666671  0.42179536166666676  1.0000
  I   I6        1.0  0.21650166666666665  0.21650166666666662  0.42179536166666676  1.0000
  Cr  Cr3       1.0  0.11111111111111108  0.5555555555555555  0.5  1.0000
  Cr  Cr4       1.0  0.22222222222222215  0.44444444444444436  0.5  1.0000
  I   I7        1.0  0.21650166666666665  0.3333333333333333  0.5782046383333332  1.0000
  I   I8        1.0  1.7836299777453108e-17  0.549835  0.5782046383333332  1.0000
  I   I9        1.0  0.1168316666666667  0.45016500000000004  0.5782046383333332  1.0000
  I   I10       1.0  0.1168316666666667  0.3333333333333333  0.42179536166666676  1.0000
  I   I11       1.0  0.0  0.45016500000000004  0.42179536166666676  1.0000
  I   I12       1.0  0.21650166666666665  0.549835  0.42179536166666676  1.0000
  Cr  Cr5       1.0  0.1111111111111111  0.8888888888888888  0.5  1.0000
  Cr  Cr6       1.0  0.2222222222222222  0.7777777777777778  0.5  1.0000
  I   I13       1.0  0.21650166666666665  0.6666666666666666  0.5782046383333332  1.0000
  I   I14       1.0  0.0  0.8831683333333332  0.5782046383333332  1.0000
  I   I15       1.0  0.11683166666666664  0.7834983333333333  0.5782046383333332  1.0000
  I   I16       1.0  0.11683166666666668  0.6666666666666666  0.42179536166666676  1.0000
  I   I17       1.0  0.0  0.7834983333333333  0.42179536166666676  1.0000
  I   I18       1.0  0.21650166666666662  0.8831683333333332  0.42179536166666676  1.0000
  Cr  Cr7       1.0  0.4444444444444445  0.22222222222222224  0.5  1.0000
  Cr  Cr8       1.0  0.5555555555555555  0.11111111111111108  0.5  1.0000
  I   I19       1.0  0.549835  0.0  0.5782046383333332  1.0000
  I   I20       1.0  0.3333333333333333  0.21650166666666662  0.5782046383333332  1.0000
  I   I21       1.0  0.4501650000000001  0.11683166666666671  0.5782046383333332  1.0000
  I   I22       1.0  0.4501650000000001  0.0  0.42179536166666676  1.0000
  I   I23       1.0  0.33333333333333337  0.11683166666666671  0.42179536166666676  1.0000
  I   I24       1.0  0.549835  0.21650166666666662  0.42179536166666676  1.0000
  Cr  Cr9       1.0  0.4444444444444444  0.5555555555555555  0.5  1.0000
  Cr  Cr10      1.0  0.5555555555555555  0.44444444444444436  0.5  1.0000
  I   I25       1.0  0.549835  0.3333333333333333  0.5782046383333332  1.0000
  I   I26       1.0  0.33333333333333337  0.549835  0.5782046383333332  1.0000
  I   I27       1.0  0.4501650000000001  0.45016500000000004  0.5782046383333332  1.0000
  I   I28       1.0  0.45016500000000004  0.3333333333333333  0.42179536166666676  1.0000
  I   I29       1.0  0.33333333333333337  0.45016500000000004  0.42179536166666676  1.0000
  I   I30       1.0  0.549835  0.549835  0.42179536166666676  1.0000
  Cr  Cr11      1.0  0.4444444444444444  0.8888888888888888  0.5  1.0000
  Cr  Cr12      1.0  0.5555555555555556  0.7777777777777778  0.5  1.0000
  I   I31       1.0  0.549835  0.6666666666666666  0.5782046383333332  1.0000
  I   I32       1.0  0.3333333333333333  0.8831683333333332  0.5782046383333332  1.0000
  I   I33       1.0  0.45016500000000004  0.7834983333333333  0.5782046383333332  1.0000
  I   I34       1.0  0.45016500000000004  0.6666666666666666  0.42179536166666676  1.0000
  I   I35       1.0  0.3333333333333333  0.7834983333333333  0.42179536166666676  1.0000
  I   I36       1.0  0.549835  0.8831683333333332  0.42179536166666676  1.0000
  Cr  Cr13      1.0  0.7777777777777778  0.22222222222222224  0.5  1.0000
  Cr  Cr14      1.0  0.888888888888889  0.11111111111111108  0.5  1.0000
  I   I37       1.0  0.8831683333333333  0.0  0.5782046383333332  1.0000
  I   I38       1.0  0.6666666666666667  0.21650166666666662  0.5782046383333332  1.0000
  I   I39       1.0  0.7834983333333333  0.11683166666666671  0.5782046383333332  1.0000
  I   I40       1.0  0.7834983333333333  0.0  0.42179536166666676  1.0000
  I   I41       1.0  0.6666666666666667  0.11683166666666671  0.42179536166666676  1.0000
  I   I42       1.0  0.8831683333333333  0.21650166666666662  0.42179536166666676  1.0000
  Cr  Cr15      1.0  0.7777777777777778  0.5555555555555555  0.5  1.0000
  Cr  Cr16      1.0  0.8888888888888888  0.44444444444444436  0.5  1.0000
  I   I43       1.0  0.8831683333333333  0.3333333333333333  0.5782046383333332  1.0000
  I   I44       1.0  0.6666666666666667  0.549835  0.5782046383333332  1.0000
  I   I45       1.0  0.7834983333333333  0.45016500000000004  0.5782046383333332  1.0000
  I   I46       1.0  0.7834983333333333  0.3333333333333333  0.42179536166666676  1.0000
  I   I47       1.0  0.6666666666666667  0.45016500000000004  0.42179536166666676  1.0000
  I   I48       1.0  0.8831683333333333  0.549835  0.42179536166666676  1.0000
  Cr  Cr17      1.0  0.7777777777777778  0.8888888888888888  0.5  1.0000
  Cr  Cr18      1.0  0.888888888888889  0.7777777777777778  0.5  1.0000
  I   I49       1.0  0.8831683333333333  0.6666666666666666  0.5782046383333332  1.0000
  I   I50       1.0  0.6666666666666667  0.8831683333333332  0.5782046383333332  1.0000
  I   I51       1.0  0.7834983333333333  0.7834983333333333  0.5782046383333332  1.0000
  I   I52       1.0  0.7834983333333333  0.6666666666666666  0.42179536166666676  1.0000
  I   I53       1.0  0.6666666666666666  0.7834983333333333  0.42179536166666676  1.0000
  I   I54       1.0  0.8831683333333333  0.8831683333333332  0.42179536166666676  1.0000
