data_image0
_chemical_formula_structural       Cr2I6
_chemical_formula_sum              "Cr2 I6"
_cell_length_a       6.867
_cell_length_b       6.867
_cell_length_c       20.0
_cell_angle_alpha    90.0
_cell_angle_beta     90.0
_cell_angle_gamma    119.99999999999999

_space_group_name_H-M_alt    "P 1"
_space_group_IT_number       1

loop_
  _space_group_symop_operation_xyz
  'x, y, z'

loop_
  _atom_site_type_symbol
  _atom_site_label
  _atom_site_symmetry_multiplicity
  _atom_site_fract_x
  _atom_site_fract_y
  _atom_site_fract_z
  _atom_site_occupancy
  Cr  Cr1       1.0  0.33333333333333337  0.6666666666666667  0.5  1.0000
  Cr  Cr2       1.0  0.6666666666666666  0.33333333333333326  0.5  1.0000
  I   I1        1.0  0.6495049999999999  0.0  0.5782046383333332  1.0000
  I   I2        1.0  0.0  0.6495049999999999  0.5782046383333332  1.0000
  I   I3        1.0  0.35049500000000017  0.35049500000000017  0.5782046383333332  1.0000
  I   I4        1.0  0.3504950000000001  0.0  0.42179536166666676  1.0000
  I   I5        1.0  3.891672286111473e-17  0.35049500000000017  0.42179536166666676  1.0000
  I   I6        1.0  0.6495049999999999  0.6495049999999999  0.42179536166666676  1.0000
